5HF|5HF_model|sdf|1|dock6
  -GOLD-   7 52112423D 1   1.00000     0.00000

 64 67  0  0  0  0  0  0  0  0  1 V2000
   12.8694  -27.4990  -41.8690 C   0  0  0  0  0  0  0  0  0  0  0  0
   14.6851  -29.3069  -39.9967 C   0  0  0  0  0  0  0  0  0  0  0  0
   15.9490  -31.1024  -40.8949 C   0  0  0  0  0  0  0  0  0  0  0  0
   17.0238  -29.2745  -39.6869 C   0  0  0  0  0  0  0  0  0  0  0  0
   17.6159  -22.0535  -43.7648 C   0  0  0  0  0  0  0  0  0  0  0  0
   18.3747  -23.7366  -45.3719 C   0  0  0  0  0  0  0  0  0  0  0  0
   19.1240  -25.3386  -46.9977 C   0  0  0  0  0  0  0  0  0  0  0  0
   15.7894  -20.8263  -36.9324 C   0  0  0  0  0  0  0  0  0  0  0  0
   16.1604  -20.4165  -38.1900 O   0  0  0  0  0  0  0  0  0  0  0  0
   15.4027  -20.7989  -39.2477 C   0  0  0  0  0  0  0  0  0  0  0  0
   15.1911  -22.2843  -39.5101 C   0  0  0  0  0  0  0  0  0  0  0  0
   15.5658  -22.9018  -40.8052 N   0  0  2  0  0  0  0  0  0  0  0  0
   15.4144  -24.3715  -40.7291 C   0  0  0  0  0  0  0  0  0  0  0  0
   14.1331  -25.0820  -41.0797 C   0  0  1  0  0  0  0  0  0  0  0  0
   14.0044  -25.4338  -42.4638 C   0  0  0  0  0  0  0  0  0  0  0  0
   12.7970  -26.2305  -42.6630 C   0  0  0  0  0  0  0  0  0  0  0  0
   13.2507  -27.3192  -40.4858 N   0  0  1  0  0  0  0  0  0  0  0  0
   13.3390  -28.6407  -39.7533 C   0  0  0  0  0  0  0  0  0  0  0  0
   14.7350  -30.5071  -40.6913 C   0  0  0  0  0  0  0  0  0  0  0  0
   17.0672  -30.4745  -40.3954 C   0  0  0  0  0  0  0  0  0  0  0  0
   15.8184  -28.6793  -39.4845 C   0  0  0  0  0  0  0  0  0  0  0  0
   14.1882  -26.2574  -40.1867 C   0  0  0  0  0  0  0  0  0  0  0  0
   17.1456  -22.6018  -41.1790 S   0  0  0  0  0  0  0  0  0  0  0  0
   18.0924  -23.1321  -40.2525 O   0  0  0  0  0  0  0  0  0  0  0  0
   17.4349  -21.2192  -41.0772 O   0  0  0  0  0  0  0  0  0  0  0  0
   17.5863  -23.0380  -42.7703 C   0  0  0  0  0  0  0  0  0  0  0  0
   18.0145  -22.4007  -45.0820 C   0  0  0  0  0  0  0  0  0  0  0  0
   18.7619  -24.0714  -46.7147 C   0  0  0  0  0  0  0  0  0  0  0  0
   19.0987  -26.3114  -45.9892 C   0  0  0  0  0  0  0  0  0  0  0  0
   18.7144  -26.0112  -44.6837 C   0  0  0  0  0  0  0  0  0  0  0  0
   18.3557  -24.6783  -44.3997 C   0  0  0  0  0  0  0  0  0  0  0  0
   17.9381  -24.3262  -43.0453 C   0  0  0  0  0  0  0  0  0  0  0  0
   11.8783  -27.9765  -41.8927 H   0  0  0  0  0  0  0  0  0  0  0  0
   13.6073  -28.1612  -42.3452 H   0  0  0  0  0  0  0  0  0  0  0  0
   16.0286  -32.0365  -41.4312 H   0  0  0  0  0  0  0  0  0  0  0  0
   17.9294  -28.8264  -39.3065 H   0  0  0  0  0  0  0  0  0  0  0  0
   17.3373  -21.0362  -43.5314 H   0  0  0  0  0  0  0  0  0  0  0  0
   19.4324  -25.6039  -47.9984 H   0  0  0  0  0  0  0  0  0  0  0  0
   16.5027  -20.4337  -36.1925 H   0  0  0  0  0  0  0  0  0  0  0  0
   14.7820  -20.4480  -36.7061 H   0  0  0  0  0  0  0  0  0  0  0  0
   15.7858  -21.9250  -36.8908 H   0  0  0  0  0  0  0  0  0  0  0  0
   15.8723  -20.3770  -40.1488 H   0  0  0  0  0  0  0  0  0  0  0  0
   14.4076  -20.3516  -39.1092 H   0  0  0  0  0  0  0  0  0  0  0  0
   14.1160  -22.4735  -39.3755 H   0  0  0  0  0  0  0  0  0  0  0  0
   15.7576  -22.8209  -38.7350 H   0  0  0  0  0  0  0  0  0  0  0  0
   16.1852  -24.7905  -41.3930 H   0  0  0  0  0  0  0  0  0  0  0  0
   15.6380  -24.6460  -39.6882 H   0  0  0  0  0  0  0  0  0  0  0  0
   13.2869  -24.4457  -40.7810 H   0  0  0  0  0  0  0  0  0  0  0  0
   14.8825  -26.0177  -42.7747 H   0  0  0  0  0  0  0  0  0  0  0  0
   13.9406  -24.5177  -43.0685 H   0  0  0  0  0  0  0  0  0  0  0  0
   11.9222  -25.6493  -42.3379 H   0  0  0  0  0  0  0  0  0  0  0  0
   12.6978  -26.4763  -43.7303 H   0  0  0  0  0  0  0  0  0  0  0  0
   13.2142  -28.4641  -38.6749 H   0  0  0  0  0  0  0  0  0  0  0  0
   12.5387  -29.3051  -40.1112 H   0  0  0  0  0  0  0  0  0  0  0  0
   13.8300  -30.9633  -41.0643 H   0  0  0  0  0  0  0  0  0  0  0  0
   18.0297  -30.9354  -40.5609 H   0  0  0  0  0  0  0  0  0  0  0  0
   15.7422  -27.7477  -38.9434 H   0  0  0  0  0  0  0  0  0  0  0  0
   15.2031  -26.6770  -40.2431 H   0  0  0  0  0  0  0  0  0  0  0  0
   13.9907  -25.9120  -39.1607 H   0  0  0  0  0  0  0  0  0  0  0  0
   18.0427  -21.6490  -45.8574 H   0  0  0  0  0  0  0  0  0  0  0  0
   18.7626  -23.3174  -47.4871 H   0  0  0  0  0  0  0  0  0  0  0  0
   19.3862  -27.3239  -46.2313 H   0  0  0  0  0  0  0  0  0  0  0  0
   18.6925  -26.7725  -43.9179 H   0  0  0  0  0  0  0  0  0  0  0  0
   17.9080  -25.0781  -42.2700 H   0  0  0  0  0  0  0  0  0  0  0  0
  7 28  2  0  0  0  0
  7 29  1  0  0  0  0
  6 28  1  0  0  0  0
 29 30  2  0  0  0  0
  6 27  2  0  0  0  0
  6 31  1  0  0  0  0
  5 27  1  0  0  0  0
 30 31  1  0  0  0  0
 31 32  2  0  0  0  0
  5 26  2  0  0  0  0
 26 32  1  0  0  0  0
 23 26  1  0  0  0  0
 15 16  1  0  0  0  0
  1 16  1  0  0  0  0
 14 15  1  0  0  0  0
  1 17  1  0  0  0  0
 12 23  1  0  0  0  0
 23 25  2  0  0  0  0
 23 24  2  0  0  0  0
  3 20  2  0  0  0  0
  3 19  1  0  0  0  0
 11 12  1  0  0  0  0
 12 13  1  0  0  0  0
  4 20  1  0  0  0  0
  2 19  2  0  0  0  0
 13 14  1  0  0  0  0
 14 22  1  0  0  0  0
  4 21  2  0  0  0  0
 10 11  1  0  0  0  0
 17 18  1  0  0  0  0
 17 22  1  0  0  0  0
  2 21  1  0  0  0  0
  2 18  1  0  0  0  0
  9 10  1  0  0  0  0
  8  9  1  0  0  0  0
  1 33  1  0  0  0  0
  1 34  1  0  0  0  0
  3 35  1  0  0  0  0
  4 36  1  0  0  0  0
  5 37  1  0  0  0  0
  7 38  1  0  0  0  0
  8 39  1  0  0  0  0
  8 40  1  0  0  0  0
  8 41  1  0  0  0  0
 10 42  1  0  0  0  0
 10 43  1  0  0  0  0
 11 44  1  0  0  0  0
 11 45  1  0  0  0  0
 13 46  1  0  0  0  0
 13 47  1  0  0  0  0
 14 48  1  0  0  0  0
 15 49  1  0  0  0  0
 15 50  1  0  0  0  0
 16 51  1  0  0  0  0
 16 52  1  0  0  0  0
 18 53  1  0  0  0  0
 18 54  1  0  0  0  0
 19 55  1  0  0  0  0
 20 56  1  0  0  0  0
 21 57  1  0  0  0  0
 22 58  1  0  0  0  0
 22 59  1  0  0  0  0
 27 60  1  0  0  0  0
 28 61  1  0  0  0  0
 29 62  1  0  0  0  0
 30 63  1  0  0  0  0
 32 64  1  0  0  0  0
M  END
> <OPENEYE_ISO_SMILES>
COCC[N@](C[C@H]1CCC[N@](C1)Cc2ccccc2)S(=O)(=O)c3ccc4ccccc4c3

> <OPENEYE_INCHI>
InChI=1S/C26H32N2O3S/c1-31-17-16-28(32(29,30)26-14-13-24-11-5-6-12-25(24)18-26)21-23-10-7-15-27(20-23)19-22-8-3-2-4-9-22/h2-6,8-9,11-14,18,23H,7,10,15-17,19-21H2,1H3/t23-/m0/s1

> <OPENEYE_INCHIKEY>
NIHBOOKOQZGYSF-QHCPKHFHSA-N

> <FORMULA>
C26H32N2O3S

> <Gold.Version>
5.3.0

> <Gold.Id.Protein>
5DYW|5DYW_protein|mol2

> <Gold.PLP.Fitness>
90.9332

> <Gold.PLP.PLP>
-93.4168

> <Gold.PLP.part.hbond>
-0.2247

> <Gold.PLP.part.metal>
0.0000

> <Gold.PLP.part.buried>
-6.8639

> <Gold.PLP.part.nonpolar>
-86.4535

> <Gold.PLP.part.repulsive>
0.1566

> <Gold.PLP.ligand.clash>
0.0000

> <Gold.PLP.ligand.torsion>
2.7463

> <Gold.PLP.Chemscore.Hbond>
0.0000

> <Gold.PLP.Chemscore.CHOScore>
0.0000

> <Gold.PLP.Chemscore.Metal>
0.0000

> <Gold.PLP.Chemscore.Internal.Correction>
3.0090

> <Gold.PLP.Reference.RMSD>
1.6838

> <Gold.Reference.RMSD>
1.6838

> <Gold.Protein.ActiveResidues>
 ASN68   ILE69   ASP70   GLN71   PHE76   GLY78   SER79   TRP82   GLY116  GLY117 
 PHE118  GLN119  THR120  SER198  ALA199  TRP231  PRO285  LEU286  SER287  VAL288 
 ALA328  PHE329  TYR332  ASN397  PHE398  TRP430  MET434  MET437  HIS438  GLY439 
 TYR440 

$$$$
