E20|E20_model|sdf|1|dock1
  -GOLD-   7 52112423D 1   1.00000     0.00000

 57 60  0  0  0  0  0  0  0  0  1 V2000
   18.7377  -29.1989  -39.0767 C   0  0  0  0  0  0  0  0  0  0  0  0
   19.4755  -28.4624  -38.1463 C   0  0  0  0  0  0  0  0  0  0  0  0
   18.9806  -27.2580  -37.5775 C   0  0  0  0  0  0  0  0  0  0  0  0
   17.6649  -26.7845  -37.9769 C   0  0  0  0  0  0  0  0  0  0  0  0
   16.9314  -27.5541  -38.9106 C   0  0  0  0  0  0  0  0  0  0  0  0
   17.4502  -28.7174  -39.4683 C   0  0  0  0  0  0  0  0  0  0  0  0
   15.6652  -26.9724  -39.2453 C   0  0  0  0  0  0  0  0  0  0  0  0
   15.5338  -25.7289  -38.3350 C   0  0  1  0  0  0  0  0  0  0  0  0
   16.8364  -25.6109  -37.5134 C   0  0  0  0  0  0  0  0  0  0  0  0
   15.4889  -24.3883  -39.0177 C   0  0  0  0  0  0  0  0  0  0  0  0
   16.1209  -24.2175  -40.3358 C   0  0  0  0  0  0  0  0  0  0  0  0
   15.1221  -23.7264  -41.3773 C   0  0  0  0  0  0  0  0  0  0  0  0
   15.7662  -23.4837  -42.7140 C   0  0  0  0  0  0  0  0  0  0  0  0
   16.9419  -22.5533  -42.6220 N   0  0  0  0  0  0  0  0  0  0  0  0
   18.0323  -23.0542  -41.7085 C   0  0  0  0  0  0  0  0  0  0  0  0
   17.4220  -23.3433  -40.3062 C   0  0  0  0  0  0  0  0  0  0  0  0
   17.7513  -22.1415  -43.8331 C   0  0  0  0  0  0  0  0  0  0  0  0
   18.3133  -23.2902  -44.6523 C   0  0  0  0  0  0  0  0  0  0  0  0
   19.0032  -22.9790  -45.8657 C   0  0  0  0  0  0  0  0  0  0  0  0
   19.4255  -24.0282  -46.7510 C   0  0  0  0  0  0  0  0  0  0  0  0
   19.1828  -25.3613  -46.4098 C   0  0  0  0  0  0  0  0  0  0  0  0
   18.5247  -25.6825  -45.1781 C   0  0  0  0  0  0  0  0  0  0  0  0
   18.1222  -24.6526  -44.2712 C   0  0  0  0  0  0  0  0  0  0  0  0
   14.8695  -27.3999  -40.1304 O   0  0  0  0  0  0  0  0  0  0  0  0
   19.1890  -30.3769  -39.6003 O   0  0  0  0  0  0  0  0  0  0  0  0
   18.4947  -31.0975  -40.7370 C   0  0  0  0  0  0  0  0  0  0  0  0
   20.6105  -28.7465  -37.5522 O   0  0  0  0  0  0  0  0  0  0  0  0
   20.9266  -28.4032  -36.2247 C   0  0  0  0  0  0  0  0  0  0  0  0
   19.5982  -26.7079  -36.8488 H   0  0  0  0  0  0  0  0  0  0  0  0
   16.8441  -29.2550  -40.2168 H   0  0  0  0  0  0  0  0  0  0  0  0
   14.5759  -25.9035  -37.7904 H   0  0  0  0  0  0  0  0  0  0  0  0
   16.6806  -25.5667  -36.4094 H   0  0  0  0  0  0  0  0  0  0  0  0
   17.3478  -24.6246  -37.6023 H   0  0  0  0  0  0  0  0  0  0  0  0
   14.4252  -24.0650  -39.0907 H   0  0  0  0  0  0  0  0  0  0  0  0
   15.9075  -23.6237  -38.3229 H   0  0  0  0  0  0  0  0  0  0  0  0
   16.4595  -25.2330  -40.6434 H   0  0  0  0  0  0  0  0  0  0  0  0
   14.2572  -24.4244  -41.4674 H   0  0  0  0  0  0  0  0  0  0  0  0
   14.5802  -22.8192  -41.0198 H   0  0  0  0  0  0  0  0  0  0  0  0
   16.0507  -24.4439  -43.2033 H   0  0  0  0  0  0  0  0  0  0  0  0
   15.0216  -23.1172  -43.4584 H   0  0  0  0  0  0  0  0  0  0  0  0
   18.5679  -23.9361  -42.1291 H   0  0  0  0  0  0  0  0  0  0  0  0
   18.8992  -22.3550  -41.6586 H   0  0  0  0  0  0  0  0  0  0  0  0
   17.2376  -22.3890  -39.7572 H   0  0  0  0  0  0  0  0  0  0  0  0
   18.1848  -23.8030  -39.6366 H   0  0  0  0  0  0  0  0  0  0  0  0
   17.1512  -21.4630  -44.4837 H   0  0  0  0  0  0  0  0  0  0  0  0
   18.5696  -21.4491  -43.5311 H   0  0  0  0  0  0  0  0  0  0  0  0
   19.2110  -21.9263  -46.1202 H   0  0  0  0  0  0  0  0  0  0  0  0
   19.9407  -23.8076  -47.7020 H   0  0  0  0  0  0  0  0  0  0  0  0
   19.5077  -26.1527  -47.1071 H   0  0  0  0  0  0  0  0  0  0  0  0
   18.3245  -26.7373  -44.9252 H   0  0  0  0  0  0  0  0  0  0  0  0
   17.6725  -24.9047  -43.2968 H   0  0  0  0  0  0  0  0  0  0  0  0
   18.8626  -32.0601  -41.1639 H   0  0  0  0  0  0  0  0  0  0  0  0
   17.4326  -31.2543  -40.4330 H   0  0  0  0  0  0  0  0  0  0  0  0
   18.3976  -30.3743  -41.5796 H   0  0  0  0  0  0  0  0  0  0  0  0
   21.8903  -28.6440  -35.7204 H   0  0  0  0  0  0  0  0  0  0  0  0
   20.7800  -27.3008  -36.1323 H   0  0  0  0  0  0  0  0  0  0  0  0
   20.1136  -28.8147  -35.5824 H   0  0  0  0  0  0  0  0  0  0  0  0
  1  2  2  0  0  0  0
  1  6  1  0  0  0  0
  1 25  1  0  0  0  0
  2  3  1  0  0  0  0
  2 27  1  0  0  0  0
  3  4  2  0  0  0  0
  3 29  1  0  0  0  0
  4  5  1  0  0  0  0
  4  9  1  0  0  0  0
  5  6  2  0  0  0  0
  5  7  1  0  0  0  0
  6 30  1  0  0  0  0
  7  8  1  0  0  0  0
  7 24  2  0  0  0  0
  8  9  1  0  0  0  0
  8 10  1  0  0  0  0
  8 31  1  0  0  0  0
  9 32  1  0  0  0  0
  9 33  1  0  0  0  0
 10 11  1  0  0  0  0
 10 34  1  0  0  0  0
 10 35  1  0  0  0  0
 11 12  1  0  0  0  0
 11 16  1  0  0  0  0
 11 36  1  0  0  0  0
 12 13  1  0  0  0  0
 12 37  1  0  0  0  0
 12 38  1  0  0  0  0
 13 14  1  0  0  0  0
 13 39  1  0  0  0  0
 13 40  1  0  0  0  0
 14 15  1  0  0  0  0
 14 17  1  0  0  0  0
 15 16  1  0  0  0  0
 15 41  1  0  0  0  0
 15 42  1  0  0  0  0
 16 43  1  0  0  0  0
 16 44  1  0  0  0  0
 17 18  1  0  0  0  0
 17 45  1  0  0  0  0
 17 46  1  0  0  0  0
 18 19  2  0  0  0  0
 18 23  1  0  0  0  0
 19 20  1  0  0  0  0
 19 47  1  0  0  0  0
 20 21  2  0  0  0  0
 20 48  1  0  0  0  0
 21 22  1  0  0  0  0
 21 49  1  0  0  0  0
 22 23  2  0  0  0  0
 22 50  1  0  0  0  0
 23 51  1  0  0  0  0
 25 26  1  0  0  0  0
 26 52  1  0  0  0  0
 26 53  1  0  0  0  0
 26 54  1  0  0  0  0
 27 28  1  0  0  0  0
 28 55  1  0  0  0  0
 28 56  1  0  0  0  0
 28 57  1  0  0  0  0
M  END
> <OPENEYE_ISO_SMILES>
COc1cc2c(cc1OC)C(=O)[C@@H](C2)CC3CCN(CC3)Cc4ccccc4

> <OPENEYE_INCHI>
InChI=1S/C24H29NO3/c1-27-22-14-19-13-20(24(26)21(19)15-23(22)28-2)12-17-8-10-25(11-9-17)16-18-6-4-3-5-7-18/h3-7,14-15,17,20H,8-13,16H2,1-2H3/t20-/m1/s1

> <OPENEYE_INCHIKEY>
ADEBPBSSDYVVLD-HXUWFJFHSA-N

> <FORMULA>
C24H29NO3

> <Gold.Version>
5.3.0

> <Gold.Id.Protein>
5DYW|5DYW_protein|mol2

> <Gold.PLP.Fitness>
76.3375

> <Gold.PLP.PLP>
-78.3793

> <Gold.PLP.part.hbond>
-0.3114

> <Gold.PLP.part.metal>
0.0000

> <Gold.PLP.part.buried>
-8.6708

> <Gold.PLP.part.nonpolar>
-69.7137

> <Gold.PLP.part.repulsive>
0.2340

> <Gold.PLP.ligand.clash>
4.1939

> <Gold.PLP.ligand.torsion>
1.6275

> <Gold.PLP.Chemscore.Hbond>
0.0000

> <Gold.PLP.Chemscore.CHOScore>
0.0000

> <Gold.PLP.Chemscore.Metal>
0.0000

> <Gold.PLP.Chemscore.Internal.Correction>
5.4072

> <Gold.PLP.Reference.RMSD>
6.9747

> <Gold.Reference.RMSD>
6.9747

> <Gold.Protein.ActiveResidues>
 ASN68   ILE69   ASP70   GLN71   PHE76   GLY78   SER79   TRP82   GLY116  GLY117 
 PHE118  GLN119  THR120  SER198  ALA199  TRP231  PRO285  LEU286  SER287  VAL288 
 ALA328  PHE329  TYR332  ASN397  PHE398  TRP430  MET434  MET437  HIS438  GLY439 
 TYR440 

$$$$
