GNT|GNT_model|sdf|1|dock2
  -GOLD-   7 52112423D 1   1.00000     0.00000

 42 45  0  0  0  0  0  0  0  0  1 V2000
   15.6366  -26.7307  -40.6393 C   0  0  0  0  0  0  0  0  0  0  0  0
   16.1478  -25.5210  -40.7742 C   0  0  0  0  0  0  0  0  0  0  0  0
   16.8376  -24.7708  -39.6697 C   0  0  1  0  0  0  0  0  0  0  0  0
   16.7045  -25.4390  -38.2424 C   0  0  0  0  0  0  0  0  0  0  0  0
   16.7096  -26.9834  -38.3084 C   0  0  1  0  0  0  0  0  0  0  0  0
   15.7354  -27.6091  -39.3581 C   0  0  1  0  0  0  0  0  0  0  0  0
   18.0705  -27.4626  -38.6328 O   0  0  0  0  0  0  0  0  0  0  0  0
   18.9271  -29.6173  -39.5067 C   0  0  0  0  0  0  0  0  0  0  0  0
   18.5484  -30.7852  -40.2092 C   0  0  0  0  0  0  0  0  0  0  0  0
   17.2380  -30.9737  -40.6380 C   0  0  0  0  0  0  0  0  0  0  0  0
   14.8198  -30.2822  -40.8809 C   0  0  0  0  0  0  0  0  0  0  0  0
   13.7921  -30.1345  -39.8109 N   0  0  1  0  0  0  0  0  0  0  0  0
   13.3610  -28.7265  -39.5882 C   0  0  0  0  0  0  0  0  0  0  0  0
   14.3599  -27.9254  -38.7489 C   0  0  0  0  0  0  0  0  0  0  0  0
   17.8963  -28.6673  -39.2712 C   0  0  0  0  0  0  0  0  0  0  0  0
   16.5625  -28.8690  -39.7105 C   0  0  0  0  0  0  0  0  0  0  0  0
   16.2087  -30.0300  -40.4059 C   0  0  0  0  0  0  0  0  0  0  0  0
   21.2452  -30.2019  -39.1950 C   0  0  0  0  0  0  0  0  0  0  0  0
   20.1254  -29.4496  -38.8338 O   0  0  0  0  0  0  0  0  0  0  0  0
   18.2039  -24.6970  -39.9919 O   0  0  0  0  0  0  0  0  0  0  0  0
   12.6223  -31.0390  -40.0926 C   0  0  0  0  0  0  0  0  0  0  0  0
   15.1347  -27.0032  -41.5829 H   0  0  0  0  0  0  0  0  0  0  0  0
   16.0001  -25.1408  -41.7994 H   0  0  0  0  0  0  0  0  0  0  0  0
   16.3457  -23.7726  -39.6000 H   0  0  0  0  0  0  0  0  0  0  0  0
   17.4934  -25.0650  -37.5500 H   0  0  0  0  0  0  0  0  0  0  0  0
   15.8015  -25.0634  -37.7070 H   0  0  0  0  0  0  0  0  0  0  0  0
   16.3612  -27.3099  -37.3013 H   0  0  0  0  0  0  0  0  0  0  0  0
   19.2934  -31.5684  -40.4286 H   0  0  0  0  0  0  0  0  0  0  0  0
   17.0074  -31.9054  -41.1826 H   0  0  0  0  0  0  0  0  0  0  0  0
   14.7442  -31.2828  -41.3672 H   0  0  0  0  0  0  0  0  0  0  0  0
   14.5769  -29.6338  -41.7551 H   0  0  0  0  0  0  0  0  0  0  0  0
   13.1529  -28.2146  -40.5576 H   0  0  0  0  0  0  0  0  0  0  0  0
   12.3413  -28.6868  -39.1405 H   0  0  0  0  0  0  0  0  0  0  0  0
   14.5054  -28.4384  -37.7704 H   0  0  0  0  0  0  0  0  0  0  0  0
   13.8802  -26.9735  -38.4234 H   0  0  0  0  0  0  0  0  0  0  0  0
   22.2107  -30.0669  -38.6535 H   0  0  0  0  0  0  0  0  0  0  0  0
   20.9696  -31.2821  -39.1587 H   0  0  0  0  0  0  0  0  0  0  0  0
   21.4309  -30.0554  -40.2849 H   0  0  0  0  0  0  0  0  0  0  0  0
   18.6716  -24.4312  -39.2093 H   0  0  0  0  0  0  0  0  0  0  0  0
   11.8542  -30.9288  -39.2933 H   0  0  0  0  0  0  0  0  0  0  0  0
   12.1963  -30.8667  -41.1092 H   0  0  0  0  0  0  0  0  0  0  0  0
   12.9379  -32.1006  -40.2268 H   0  0  0  0  0  0  0  0  0  0  0  0
  1  2  2  0  0  0  0
  1  6  1  0  0  0  0
  1 22  1  0  0  0  0
  2  3  1  0  0  0  0
  2 23  1  0  0  0  0
  3  4  1  0  0  0  0
  3 20  1  0  0  0  0
  3 24  1  0  0  0  0
  4  5  1  0  0  0  0
  4 25  1  0  0  0  0
  4 26  1  0  0  0  0
  5  6  1  0  0  0  0
  5  7  1  0  0  0  0
  5 27  1  0  0  0  0
  6 14  1  0  0  0  0
  6 16  1  0  0  0  0
  7 15  1  0  0  0  0
  8  9  2  0  0  0  0
  8 15  1  0  0  0  0
  8 19  1  0  0  0  0
  9 10  1  0  0  0  0
  9 28  1  0  0  0  0
 10 17  2  0  0  0  0
 10 29  1  0  0  0  0
 11 12  1  0  0  0  0
 11 17  1  0  0  0  0
 11 30  1  0  0  0  0
 11 31  1  0  0  0  0
 12 13  1  0  0  0  0
 12 21  1  0  0  0  0
 13 14  1  0  0  0  0
 13 32  1  0  0  0  0
 13 33  1  0  0  0  0
 14 34  1  0  0  0  0
 14 35  1  0  0  0  0
 15 16  2  0  0  0  0
 16 17  1  0  0  0  0
 18 19  1  0  0  0  0
 18 36  1  0  0  0  0
 18 37  1  0  0  0  0
 18 38  1  0  0  0  0
 20 39  1  0  0  0  0
 21 40  1  0  0  0  0
 21 41  1  0  0  0  0
 21 42  1  0  0  0  0
M  END
> <OPENEYE_ISO_SMILES>
C[N@@]1CC[C@@]23C=C[C@@H](C[C@@H]2Oc4c3c(ccc4OC)C1)O

> <OPENEYE_INCHI>
InChI=1S/C17H21NO3/c1-18-8-7-17-6-5-12(19)9-14(17)21-16-13(20-2)4-3-11(10-18)15(16)17/h3-6,12,14,19H,7-10H2,1-2H3/t12-,14-,17-/m0/s1

> <OPENEYE_INCHIKEY>
ASUTZQLVASHGKV-JDFRZJQESA-N

> <FORMULA>
C17H21NO3

> <Gold.Version>
5.3.0

> <Gold.Id.Protein>
5DYW|5DYW_protein|mol2

> <Gold.PLP.Fitness>
56.0971

> <Gold.PLP.PLP>
-53.4720

> <Gold.PLP.part.hbond>
-1.9573

> <Gold.PLP.part.metal>
0.0000

> <Gold.PLP.part.buried>
-4.3228

> <Gold.PLP.part.nonpolar>
-48.0986

> <Gold.PLP.part.repulsive>
0.1250

> <Gold.PLP.ligand.clash>
0.0000

> <Gold.PLP.ligand.torsion>
0.2277

> <Gold.PLP.Chemscore.Hbond>
1.0000

> <Gold.PLP.Chemscore.CHOScore>
0.0000

> <Gold.PLP.Chemscore.Metal>
0.0000

> <Gold.Chemscore.Hbonds>
donor molecule, donor type, donor heavy atom, donor atom, acceptor molecule, acceptor atom, score
      L1  H    20    39       P1  5131  1.00

> <Gold.PLP.Chemscore.Internal.Correction>
0.0806

> <Gold.PLP.Reference.RMSD>
6.9608

> <Gold.Reference.RMSD>
6.9608

> <Gold.Protein.ActiveResidues>
 ASN68   ILE69   ASP70   GLN71   PHE76   GLY78   SER79   TRP82   GLY116  GLY117 
 PHE118  GLN119  THR120  SER198  ALA199  TRP231  PRO285  LEU286  SER287  VAL288 
 ALA328  PHE329  TYR332  ASN397  PHE398  TRP430  MET434  MET437  HIS438  GLY439 
 TYR440 

$$$$
